<?xml version="1.0" encoding="UTF-8"?>
<net version="0.27" xmlns:xsi="http://www.w3.org/2001/XMLSchema-instance" xsi:noNamespaceSchemaLocation="http://sumo.dlr.de/xsd/net_file.xsd">

    <location netOffset="0.00,0.00" convBoundary="0.00,-10.00,5000.00,10.00" origBoundary="0.00,-10.00,5000.00,10.00" projParameter="!"/>

    <edge id="hw_w_e" from="west" to="east" priority="-1">
        <lane id="hw_w_e_0" index="0" speed="33.33" length="5000.00" shape="0.00,-1.60 5000.00,-1.60"/>
        <lane id="hw_w_e_1" index="1" speed="33.33" length="5000.00" shape="0.00,-4.80 5000.00,-4.80"/>
        <lane id="hw_w_e_2" index="2" speed="33.33" length="5000.00" shape="0.00,-8.00 5000.00,-8.00"/>
    </edge>

    <edge id="hw_e_w" from="east" to="west" priority="-1">
        <lane id="hw_e_w_0" index="0" speed="33.33" length="5000.00" shape="5000.00,1.60 0.00,1.60"/>
        <lane id="hw_e_w_1" index="1" speed="33.33" length="5000.00" shape="5000.00,4.80 0.00,4.80"/>
        <lane id="hw_e_w_2" index="2" speed="33.33" length="5000.00" shape="5000.00,8.00 0.00,8.00"/>
    </edge>

    <junction id="west" type="priority" x="0.00" y="0.00" incLanes="hw_e_w_0 hw_e_w_1 hw_e_w_2" intLanes="" shape="-1.60,-9.60 -1.60,9.60 1.60,9.60 1.60,-9.60"/>
    <junction id="east" type="priority" x="5000.00" y="0.00" incLanes="hw_w_e_0 hw_w_e_1 hw_w_e_2" intLanes="" shape="4998.40,-9.60 4998.40,9.60 5001.60,9.60 5001.60,-9.60"/>

</net>
