[General]
network = Scenario
sim-time-limit = 1000s
debug-on-errors = true
cmdenv-express-mode = true
image-path = ../../../../images

# UDPBasicApp
*.node[*].numApps = 1
*.node[*].app[0].typename = "veins_qos.traffic.VeinsInetCritTrafficApp"
*.node[*].app[0].interface = "wlan0"

*.node[*].app[0].sendInterval = 0.1s
*.node[*].app[0].payloadBytes = 300

*.node[*].app[0].crashEnabled = false
*.node[0].app[0].crashEnabled = true
*.node[0].app[0].crashTime = 20s
*.node[0].app[0].crashDuration = 10s
*.node[0].app[0].crashSendInterval = 0.02s
*.node[0].app[0].stopVehicleOnCrash = true

# Ieee80211Interface
*.node[*].wlan[0].opMode = "p"
*.node[*].wlan[0].radio.typename = "Ieee80211DimensionalRadio"
*.node[*].wlan[0].radio.bandName = "5.9 GHz"
*.node[*].wlan[0].radio.channelNumber = 3
*.node[*].wlan[0].radio.transmitter.power = 20mW
*.node[*].wlan[0].radio.bandwidth = 10 MHz
*.node[*].wlan[*].radio.antenna.mobility.typename = "AttachedMobility"
*.node[*].wlan[*].radio.antenna.mobility.mobilityModule = "^.^.^.^.mobility"
*.node[*].wlan[*].radio.antenna.mobility.offsetX = -2.5m
*.node[*].wlan[*].radio.antenna.mobility.offsetZ = 1.5m
*.node[*].wlan[*].radio.antenna.mobility.constraintAreaMinX = 0m
*.node[*].wlan[*].radio.antenna.mobility.constraintAreaMaxX = 0m
*.node[*].wlan[*].radio.antenna.mobility.constraintAreaMinY = 0m
*.node[*].wlan[*].radio.antenna.mobility.constraintAreaMaxY = 0m
*.node[*].wlan[*].radio.antenna.mobility.constraintAreaMinZ = 0m
*.node[*].wlan[*].radio.antenna.mobility.constraintAreaMaxZ = 0m

# HostAutoConfigurator
*.node[*].ipv4.configurator.typename = "HostAutoConfigurator"
*.node[*].ipv4.configurator.interfaces = "wlan0"
*.node[*].ipv4.configurator.mcastGroups = "224.0.0.1"

# VeinsInetMobility
*.node[*].mobility.typename = "VeinsInetMobility"

# VeinsInetManager
*.manager.updateInterval = 0.1s
*.manager.host = "localhost"
*.manager.port = 9999
*.manager.autoShutdown = true
*.manager.launchConfig = xmldoc("square.launchd.xml")
*.manager.moduleType = "veins_qos.veins_inet.VeinsInetCar"

# PhysicalEnvironment
*.physicalEnvironment.config = xmldoc("obstacles.xml")
*.radioMedium.obstacleLoss.typename = "IdealObstacleLoss"

# Misc
**.vector-recording = true


[Config plain]

*.visualizer.osgVisualizer.typename = ""