[General]
network = Scenario
sim-time-limit = 100s
debug-on-errors = true
cmdenv-express-mode = true
image-path = ../../../../images

# ============ APPS ============
# Configure both applications for all dynamic TraCI nodes.
# CrashBurstApp is internally gated by targetNodeIndex, so only one node triggers crash VO traffic.
*.node[*].numApps = 2
*.node[*].app[0].typename = "veins_qos.traffic.CritPacketSender"
*.node[*].app[0].localPort = 9001
*.node[*].app[0].destPort = 9001
*.node[*].app[0].sendInterval = exponential(1s)
*.node[*].app[0].payloadBytes = 100
*.node[*].app[0].packetName = "be_periodic"
*.node[*].app[0].voDedupWindow = 200ms


*.node[*].app[1].typename = "veins_qos.traffic.CrashBurstApp"
*.node[*].app[1].localPort = 9002
*.node[*].app[1].destPort = 9001
*.node[*].app[1].crashAt = 30s
*.node[*].app[1].resumeAfter = 30s
*.node[*].app[1].sendInterval = 100ms
*.node[*].app[1].payloadBytes = 120
*.node[*].app[1].repeatCount = 3
*.node[*].app[1].repeatGap = 20ms
*.node[*].app[1].repeatJitter = 5ms
*.node[*].app[1].packetName = "accident_vo"

# ============ Ieee80211Interface ============
*.node[*].wlan[0].opMode = "p"
*.node[*].wlan[0].radio.typename = "Ieee80211DimensionalRadio"
*.node[*].wlan[0].radio.bandName = "5.9 GHz"
*.node[*].wlan[0].radio.channelNumber = 3
*.node[*].wlan[0].radio.transmitter.power = 20mW
*.node[*].wlan[0].radio.bandwidth = 10 MHz
*.node[*].wlan[*].radio.antenna.mobility.typename = "AttachedMobility"
*.node[*].wlan[*].radio.antenna.mobility.mobilityModule = "^.^.^.^.mobility"
*.node[*].wlan[*].radio.antenna.mobility.offsetX = -2.5m
*.node[*].wlan[*].radio.antenna.mobility.offsetZ = 1.5m
*.node[*].wlan[*].radio.antenna.mobility.constraintAreaMinX = 0m
*.node[*].wlan[*].radio.antenna.mobility.constraintAreaMaxX = 0m
*.node[*].wlan[*].radio.antenna.mobility.constraintAreaMinY = 0m
*.node[*].wlan[*].radio.antenna.mobility.constraintAreaMaxY = 0m
*.node[*].wlan[*].radio.antenna.mobility.constraintAreaMinZ = 0m
*.node[*].wlan[*].radio.antenna.mobility.constraintAreaMaxZ = 0m

# ============ HostAutoConfigurator ============
*.node[*].ipv4.configurator.typename = "HostAutoConfigurator"
*.node[*].ipv4.configurator.interfaces = "wlan0"
*.node[*].ipv4.configurator.mcastGroups = "224.0.0.1"

# ============ VeinsInetMobility ============
*.node[*].mobility.typename = "VeinsInetMobility"

# ============ VeinsInetManager ============
*.manager.updateInterval = 1s
*.manager.host = "localhost"
*.manager.port = 9999
*.manager.autoShutdown = true
*.manager.launchConfig = xmldoc("square.launchd.xml")
*.manager.moduleType = "veins_qos.veins_inet.VeinsInetCar"

# ============ PhysicalEnvironment ============
*.physicalEnvironment.config = xmldoc("obstacles.xml")
*.radioMedium.obstacleLoss.typename = "IdealObstacleLoss"

# ============ Recording ============
**.vector-recording = true
**.scalar-recording = true


[Config plain]
*.visualizer.osgVisualizer.typename = ""
# Plain (non-QoS/DCF): finite DCF pending queue
*.node[*].wlan[*].mac.dcf.channelAccess.pendingQueue.packetCapacity = 128


[Config edca_only]
extends = plain

# Enable standard EDCA (no custom V2X FSM/HCF)
*.node[*].wlan[*].mac.qosStation = true
*.node[*].wlan[*].mac.hcf.typename = "Hcf"

# Finite per-AC queues (BK, BE, VI, VO) to avoid unrealistic infinite buffering
*.node[*].wlan[*].mac.hcf.edca.edcaf[0].pendingQueue.packetCapacity = 128
*.node[*].wlan[*].mac.hcf.edca.edcaf[1].pendingQueue.packetCapacity = 128
*.node[*].wlan[*].mac.hcf.edca.edcaf[2].pendingQueue.packetCapacity = 64
*.node[*].wlan[*].mac.hcf.edca.edcaf[3].pendingQueue.packetCapacity = 32
*.node[*].wlan[*].mac.hcf.originatorMacDataService.msduAggregationPolicy.typename = ""

# DSCP -> UP classifier on cars
*.node[*].wlan[*].classifier.typename = "veins_qos.qos.QosClassifier"
*.node[*].wlan[*].classifier.crashDscp = 46
*.node[*].wlan[*].classifier.defaultUp = 0

# EDCA parameters per AC
*.node[*].wlan[*].mac.hcf.edca.edcaf[0].aifsn = 7
*.node[*].wlan[*].mac.hcf.edca.edcaf[1].aifsn = 3
*.node[*].wlan[*].mac.hcf.edca.edcaf[2].aifsn = 2
*.node[*].wlan[*].mac.hcf.edca.edcaf[3].aifsn = 2

*.node[*].wlan[*].mac.hcf.edca.edcaf[0].cwMin = 15
*.node[*].wlan[*].mac.hcf.edca.edcaf[0].cwMax = 1023

*.node[*].wlan[*].mac.hcf.edca.edcaf[1].cwMin = 15
*.node[*].wlan[*].mac.hcf.edca.edcaf[1].cwMax = 1023

*.node[*].wlan[*].mac.hcf.edca.edcaf[2].cwMin = 7
*.node[*].wlan[*].mac.hcf.edca.edcaf[2].cwMax = 15

*.node[*].wlan[*].mac.hcf.edca.edcaf[3].cwMin = 3
*.node[*].wlan[*].mac.hcf.edca.edcaf[3].cwMax = 7

[Config edca_v2x]
extends = edca_only

# Use custom EDCA with LISTENING/BLOCKING/SENDING FSM
*.node[*].wlan[*].mac.hcf.typename = "veins_qos.mac.V2xHcf"
*.node[*].wlan[*].mac.hcf.adaptiveBlocking = true
*.node[*].wlan[*].mac.hcf.blockDuration = 40ms
*.node[*].wlan[*].mac.hcf.maxContinuousBlock = 250ms
*.node[*].wlan[*].mac.hcf.voQueueThreshold = 1
*.node[*].wlan[*].mac.hcf.FSMController.maxContinuousBlock = 250ms
*.node[*].wlan[*].mac.hcf.FSMController.sendingGuardTimeout = 50ms
