[General]
network = Scenario
sim-time-limit = 1000s
debug-on-errors = true
cmdenv-express-mode = true
image-path = ../../../../images

# ============ APPS ============
# Configure both applications for all dynamic TraCI nodes.
# CrashBurstApp is internally gated by targetNodeIndex, so only one node triggers the crash burst.
*.node[*].numApps = 2
*.node[*].app[0].typename = "veins_qos.traffic.CritPacketSender"
*.node[*].app[0].enabled = true
*.node[*].app[0].localPort = 9001
*.node[*].app[0].destPort = 9001
*.node[*].app[0].sendInterval = exponential(10s)
*.node[*].app[0].payloadBytes = 300
*.node[*].app[0].dscp = 0
*.node[*].app[0].packetName = "be_periodic"


*.node[*].app[1].typename = "veins_qos.traffic.CrashBurstApp"
*.node[*].app[1].localPort = 9002
*.node[*].app[1].destPort = 9001
*.node[*].app[1].targetNodeIndex = 0
*.node[*].app[1].crashAt = 30s
*.node[*].app[1].resumeAfter = 30s
*.node[*].app[1].burstPackets = 50
*.node[*].app[1].payloadBytes = 300
*.node[*].app[1].packetName = "accident_vo"

# ============ Ieee80211Interface ============
*.node[*].wlan[0].opMode = "p"
*.node[*].wlan[0].radio.typename = "Ieee80211DimensionalRadio"
*.node[*].wlan[0].radio.bandName = "5.9 GHz"
*.node[*].wlan[0].radio.channelNumber = 3
*.node[*].wlan[0].radio.transmitter.power = 20mW
*.node[*].wlan[0].radio.bandwidth = 10 MHz
*.node[*].wlan[*].radio.antenna.mobility.typename = "AttachedMobility"
*.node[*].wlan[*].radio.antenna.mobility.mobilityModule = "^.^.^.^.mobility"
*.node[*].wlan[*].radio.antenna.mobility.offsetX = -2.5m
*.node[*].wlan[*].radio.antenna.mobility.offsetZ = 1.5m
*.node[*].wlan[*].radio.antenna.mobility.constraintAreaMinX = 0m
*.node[*].wlan[*].radio.antenna.mobility.constraintAreaMaxX = 0m
*.node[*].wlan[*].radio.antenna.mobility.constraintAreaMinY = 0m
*.node[*].wlan[*].radio.antenna.mobility.constraintAreaMaxY = 0m
*.node[*].wlan[*].radio.antenna.mobility.constraintAreaMinZ = 0m
*.node[*].wlan[*].radio.antenna.mobility.constraintAreaMaxZ = 0m

# ============ HostAutoConfigurator ============
*.node[*].ipv4.configurator.typename = "HostAutoConfigurator"
*.node[*].ipv4.configurator.interfaces = "wlan0"
*.node[*].ipv4.configurator.mcastGroups = "224.0.0.1"

# ============ VeinsInetMobility ============
*.node[*].mobility.typename = "VeinsInetMobility"

# ============ VeinsInetManager ============
*.manager.updateInterval = 0.1s
*.manager.host = "localhost"
*.manager.port = 9999
*.manager.autoShutdown = true
*.manager.launchConfig = xmldoc("square.launchd.xml")
*.manager.moduleType = "veins_qos.veins_inet.VeinsInetCar"

# ============ PhysicalEnvironment ============
*.physicalEnvironment.config = xmldoc("obstacles.xml")
*.radioMedium.obstacleLoss.typename = "IdealObstacleLoss"

# ============ Recording ============
**.vector-recording = true
**.scalar-recording = true


[Config plain]
*.visualizer.osgVisualizer.typename = ""


[Config veins_edca2]
extends = plain

# Enable EDCA on car stations
*.node[*].wlan[*].mac.qosStation = true
*.node[*].wlan[*].mac.hcf.edca.edcaf[*].pendingQueue.packetCapacity = -1
*.node[*].wlan[*].mac.hcf.originatorMacDataService.msduAggregationPolicy.typename = ""

# DSCP -> UP classifier on cars
*.node[*].wlan[*].classifier.typename = "veins_qos.qos.QosClassifier"
*.node[*].wlan[*].classifier.crashDscp = 46
*.node[*].wlan[*].classifier.defaultUp = 0
